*Heading
** Job name: Job-1 Model name: Model-1
** Generated by: Abaqus/CAE Student Edition 2018
*Preprint, echo=NO, model=NO, history=NO, contact=NO
**
** PARTS
**
*Part, name=Car_body
*Node
      1,           0.,   1.40600002,   4.24002314
      2,           0.,        1.403,   4.23999977
      3,   1.79999995,        1.403,   4.23999977
      4,   1.79999995,   1.40600002,   4.24002314
      5,           0.,  0.628000021,   4.23999977
      6,   1.79999995,  0.628000021,   4.23999977
      7,          1.5, 0.00300000003,   5.46999979
      8,  0.300000012, 0.00300000003,   5.46999979
      9,  0.300000012,        0.625,   5.46999979
     10,          1.5,        0.625,   5.46999979
     11,           0.,        0.625,   5.46999979
     12,           0., 0.00300000003,   5.46999979
     13,           0., 0.00300000003,           0.
     14,           0.,        0.625,           0.
     15,   1.79999995,        0.625,   5.46999979
     16,          1.5,        0.625,           0.
     17,  0.300000012,        0.625,           0.
     18,   1.79999995,        0.625,           0.
     19,   1.79999995, 0.00300000003,   5.46999979
     20,   1.79999995, 0.00300000003,           0.
** ... 567 like lines cut
*Element, type=C3D4
   1, 429,  95,  94, 563
   2, 263, 429,  95,  94
   3,  42, 429, 177, 563
   4, 202, 376, 203, 451
   5, 563,  95, 176, 429
   6, 563, 176,  13,  42
   7, 251,  12,  81, 564
   8, 138,  19,  40, 166
   9, 564,  12,  36, 189
  10,  86,  87, 185, 421
  11, 417, 251,  81, 564
  12, 402, 562, 400, 157
  13, 245, 246,  64, 556
  14, 444, 551, 237, 158
  15, 399, 397, 234, 547
  16, 157,  59,  33, 158
  17,  59,  33,  32, 157
  18,  59, 152,  33, 412
  19, 238, 158, 412,  59
  20, 158,  59,  33, 412
** ... 1791 like lines cut
*Nset, nset=Set-10, generate
   1,  587,    1
*Elset, elset=Set-10, generate
    1,  1811,     1
** Section: Section-1
*Solid Section, elset=Set-10, material=Material-1
,
*End Part
**  
*Part, name=Rigid
*End Part
**  
**
** ASSEMBLY
**
*Assembly, name=Assembly
**  
*Instance, name=Car_body-1, part=Car_body
          6.,         5.47,       -0.314
          6.,         5.47,       -0.314, 7.00000001268805,         5.47,       -0.314, 89.9999992730282
*End Instance
**  
*Instance, name=Rigid-1, part=Rigid
2.95000004768372,           0.,           0.
*Node
      1,           5.,           0.,           0.
*Nset, nset=Rigid-1-RefPt_, internal
1, 
*Surface, type=CYLINDER, name=Surf-1
START,           0.,           0.
 LINE,          10.,           0.
*Rigid Body, ref node=Rigid-1-RefPt_, analytical surface=Surf-1
*End Instance
**  
*Nset, nset=Set-1, instance=Rigid-1
 1,
*Nset, nset=Set-2, instance=Car_body-1, generate
   1,  587,    1
*Elset, elset=Set-2, instance=Car_body-1, generate
    1,  1811,     1
*End Assembly
** 
** MATERIALS
** 
*Material, name=Material-1
*Density
8960.,
*Elastic
 1.24e+11, 0.34
** 
** INTERACTION PROPERTIES
** 
*Surface Interaction, name=IntProp-1
*Friction
 0.2,
*Surface Behavior, pressure-overclosure=HARD
** 
** PREDEFINED FIELDS
** 
** Name: Predefined Field-1   Type: Velocity
*Initial Conditions, type=VELOCITY
Set-2, 2, -20.
** ----------------------------------------------------------------
** 
** STEP: Step-1
** 
*Step, name=Step-1, nlgeom=YES
*Dynamic, Explicit
, 0.02
*Bulk Viscosity
0.06, 1.2
** 
** BOUNDARY CONDITIONS
** 
** Name: BC-1 Type: Symmetry/Antisymmetry/Encastre
*Boundary
Set-1, ENCASTRE
** 
** INTERACTIONS
** 
** Interaction: Int-1
*Contact, op=NEW
*Contact Inclusions, ALL EXTERIOR
*Contact Property Assignment
 ,  , IntProp-1
** 
** OUTPUT REQUESTS
** 
*Restart, write, number interval=1, time marks=NO
** 
** FIELD OUTPUT: F-Output-1
** 
*Output, field, variable=PRESELECT, number interval=100
** 
** HISTORY OUTPUT: H-Output-1
** 
*Output, history, variable=PRESELECT
*End Step
